@<TRIPOS>MOLECULE
B:9CR1500
    50    50     1     0     1
SMALL
NO_CHARGES
****
Generated from the CSD

@<TRIPOS>ATOM
     1 C1      29.4115  40.1380  27.8679   C.3       1 9CR1500   0.0000
     2 C2      29.9905  40.6370  29.2299   C.3       1 9CR1500   0.0000
     3 C3      31.1594  39.7870  29.8088   C.3       1 9CR1500   0.0000
     4 C4      32.3174  39.6530  28.8389   C.3       1 9CR1500   0.0000
     5 C5      31.9234  39.4240  27.3419   C.2       1 9CR1500   0.0000
     6 C6      30.6084  39.6760  26.8680   C.2       1 9CR1500   0.0000
     7 C7      30.2155  39.5550  25.4160   C.2       1 9CR1500   0.0000
     8 C8      30.6144  40.3330  24.3861   C.2       1 9CR1500   0.0000
     9 C9      30.3155  40.3510  23.0131   C.2       1 9CR1500   0.0000
    10 C10     30.9554  41.2591  22.2501   C.2       1 9CR1500   0.0000
    11 C11     31.8884  42.3491  22.5871   C.2       1 9CR1500   0.0000
    12 C12     32.5294  43.0841  21.6272   C.2       1 9CR1500   0.0000
    13 C13     33.4954  44.1541  21.9321   C.2       1 9CR1500   0.0000
    14 C14     34.1574  44.6261  20.8622   C.2       1 9CR1500   0.0000
    15 C15     35.2874  45.6042  20.6872   C.2       1 9CR1500   0.0000
    16 C16     28.4925  41.3071  27.3909   C.3       1 9CR1500   0.0000
    17 C17     28.4315  38.9960  28.1219   C.3       1 9CR1500   0.0000
    18 C18     33.2014  38.9760  26.5980   C.3       1 9CR1500   0.0000
    19 C19     29.3215  39.3360  22.4311   C.3       1 9CR1500   0.0000
    20 C20     33.7584  44.6041  23.3911   C.3       1 9CR1500   0.0000
    21 O1      36.1204  45.2542  19.7672   O.3       1 9CR1500   0.0000
    22 O2      35.6024  46.4582  21.5612   O.2       1 9CR1500   0.0000
    23 H1      29.5298  38.7456  25.1695   H         1 9CR1500   0.0000
    24 H2      30.7436  41.1709  21.1856   H         1 9CR1500   0.0000
    25 H3      32.3141  42.8666  20.5821   H         1 9CR1500   0.0000
    26 H4      32.0740  42.5773  23.6356   H         1 9CR1500   0.0000
    27 H5      32.9256  38.8080  29.1581   H         1 9CR1500   0.0000
    28 H6      32.9077  40.5665  28.8938   H         1 9CR1500   0.0000
    29 H7      29.1817  40.6373  29.9591   H         1 9CR1500   0.0000
    30 H8      30.3523  41.6544  29.0888   H         1 9CR1500   0.0000
    31 H9      29.0870  42.2121  27.2752   H         1 9CR1500   0.0000
    32 H10     28.0391  41.0459  26.4358   H         1 9CR1500   0.0000
    33 H11     27.7105  41.4784  28.1292   H         1 9CR1500   0.0000
    34 H12     35.6444  45.1855  18.8985   H         1 9CR1500   0.0000
    35 H13     34.1274  43.7593  23.9706   H         1 9CR1500   0.0000
    36 H14     34.5011  45.4005  23.3970   H         1 9CR1500   0.0000
    37 H15     32.8315  44.9690  23.8311   H         1 9CR1500   0.0000
    38 H16     28.3528  39.4592  22.9132   H         1 9CR1500   0.0000
    39 H17     29.2177  39.5027  21.3600   H         1 9CR1500   0.0000
    40 H18     29.6889  38.3261  22.6074   H         1 9CR1500   0.0000
    41 H19     30.7843  38.7921  30.0441   H         1 9CR1500   0.0000
    42 H20     31.5200  40.2637  30.7192   H         1 9CR1500   0.0000
    43 H21     31.3164  41.1110  24.6827   H         1 9CR1500   0.0000
    44 H22     33.5754  38.0544  27.0414   H         1 9CR1500   0.0000
    45 H23     32.9691  38.8053  25.5478   H         1 9CR1500   0.0000
    46 H24     33.9604  39.7525  26.6803   H         1 9CR1500   0.0000
    47 H25     33.7996  44.2124  19.9205   H         1 9CR1500   0.0000
    48 H26     27.6189  39.3490  28.7551   H         1 9CR1500   0.0000
    49 H27     28.0269  38.6470  27.1730   H         1 9CR1500   0.0000
    50 H28     28.9494  38.1770  28.6189   H         1 9CR1500   0.0000
@<TRIPOS>BOND
     1     1     2    1
     2     2     3    1
     3     3     4    1
     4     4     5    1
     5     1     6    1
     6     5     6    2
     7     6     7    1
     8     7     8    2
     9     8     9    1
    10     9    10    2
    11    10    11    1
    12    11    12    2
    13    12    13    1
    14    13    14    2
    15    14    15    1
    16     1    16    1
    17     1    17    1
    18     5    18    1
    19     9    19    1
    20    13    20    1
    21    15    21    1
    22    15    22    2
    23     7    23    1
    24    10    24    1
    25    12    25    1
    26    11    26    1
    27     4    27    1
    28     4    28    1
    29     2    29    1
    30     2    30    1
    31    16    31    1
    32    16    32    1
    33    16    33    1
    34    21    34    1
    35    20    35    1
    36    20    36    1
    37    20    37    1
    38    19    38    1
    39    19    39    1
    40    19    40    1
    41     3    41    1
    42     3    42    1
    43     8    43    1
    44    18    44    1
    45    18    45    1
    46    18    46    1
    47    14    47    1
    48    17    48    1
    49    17    49    1
    50    17    50    1
@<TRIPOS>SUBSTRUCTURE
     1 9CR1500     1 GROUP             0 B     9CR     0  
@<TRIPOS>SET
CCDC_LIGAND STATIC ATOMS
50 1 2 3 4 5 6 7 8 9 \
10 11 12 13 14 15 16 17 18 19 \
20 21 22 23 24 25 26 27 28 29 \
30 31 32 33 34 35 36 37 38 39 \
40 41 42 43 44 45 46 47 48 49 \
50 
