@<TRIPOS>MOLECULE
A:EH9356
    42    43     1     0     1
SMALL
NO_CHARGES
****
Generated from the CSD

@<TRIPOS>ATOM
     1 C1      11.1279  12.4928  20.8050   C.ar      1 EH9356   0.0000
     2 C2      11.2889  13.5408  21.6679   C.ar      1 EH9356   0.0000
     3 C3      11.3169  14.8438  21.1569   C.ar      1 EH9356   0.0000
     4 C5      11.0299  14.0768  19.0170   C.ar      1 EH9356   0.0000
     5 C14     11.5139  14.8778  23.3378   C.2       1 EH9356   0.0000
     6 N4      11.1889  15.1418  19.8310   N.ar      1 EH9356   0.0000
     7 N6      10.9989  12.8048  19.4720   N.ar      1 EH9356   0.0000
     8 N13     11.4919  15.6658  22.2339   N.pl3     1 EH9356   0.0000
     9 N15     11.4289  13.5778  22.9808   N.2       1 EH9356   0.0000
    10 C20     11.6058  17.1338  22.4069   C.2       1 EH9356   0.0000
    11 C21     10.3049  17.9308  22.1889   C.3       1 EH9356   0.0000
    12 N24     11.0919  11.1989  21.2019   N.pl3     1 EH9356   0.0000
    13 C26      9.6849  17.7458  20.8130   C.3       1 EH9356   0.0000
    14 C28      8.3599  18.4178  20.4970   C.3       1 EH9356   0.0000
    15 C30      7.8759  17.8428  19.1510   C.3       1 EH9356   0.0000
    16 C31      8.0059  16.2968  19.0810   C.3       1 EH9356   0.0000
    17 C34      6.7939  15.5748  18.4951   C.3       1 EH9356   0.0000
    18 C36     12.9098  17.7478  21.9069   C.3       1 EH9356   0.0000
    19 O38     13.9608  17.3188  22.7329   O.3       1 EH9356   0.0000
    20 C40     13.1898  17.8298  20.4070   C.3       1 EH9356   0.0000
    21 H1      11.5890  15.2402  24.3620   H         1 EH9356   0.0000
    22 H2      10.9219  14.2502  17.9474   H         1 EH9356   0.0000
    23 H3      10.5253  18.9885  22.3249   H         1 EH9356   0.0000
    24 H4       9.5796  17.6120  22.9361   H         1 EH9356   0.0000
    25 H5      12.4164  18.4263  19.9254   H         1 EH9356   0.0000
    26 H6      14.1611  18.2946  20.2439   H         1 EH9356   0.0000
    27 H7      13.1915  16.8268  19.9827   H         1 EH9356   0.0000
    28 H8       9.5399  16.6758  20.6713   H         1 EH9356   0.0000
    29 H9      10.4084  18.1133  20.0867   H         1 EH9356   0.0000
    30 H10      8.4962  19.4952  20.4166   H         1 EH9356   0.0000
    31 H11      7.6341  18.2011  21.2794   H         1 EH9356   0.0000
    32 H12     14.0228  16.3282  22.7020   H         1 EH9356   0.0000
    33 H13     12.8013  18.7949  22.1856   H         1 EH9356   0.0000
    34 H14     10.9698  10.4608  20.5160   H         1 EH9356   0.0000
    35 H15     11.1870  10.9669  22.1855   H         1 EH9356   0.0000
    36 H16      6.6228  15.9205  17.4767   H         1 EH9356   0.0000
    37 H17      6.9792  14.5017  18.4878   H         1 EH9356   0.0000
    38 H18      5.9158  15.7875  19.1030   H         1 EH9356   0.0000
    39 H19      8.1650  15.9247  20.0920   H         1 EH9356   0.0000
    40 H20      8.8720  16.0578  18.4657   H         1 EH9356   0.0000
    41 H21      8.4715  18.2795  18.3508   H         1 EH9356   0.0000
    42 H22      6.8296  18.1115  19.0130   H         1 EH9356   0.0000
@<TRIPOS>BOND
     1     1     2   ar
     2     2     3   ar
     3     3     6   ar
     4     4     6   ar
     5     1     7   ar
     6     4     7   ar
     7     3     8    1
     8     5     8    1
     9     2     9    1
    10     5     9    2
    11     8    10    2
    12    10    11    1
    13     1    12    1
    14    11    13    1
    15    13    14    1
    16    14    15    1
    17    15    16    1
    18    16    17    1
    19    10    18    1
    20    18    19    1
    21    18    20    1
    22     5    21    1
    23     4    22    1
    24    11    23    1
    25    11    24    1
    26    20    25    1
    27    20    26    1
    28    20    27    1
    29    13    28    1
    30    13    29    1
    31    14    30    1
    32    14    31    1
    33    19    32    1
    34    18    33    1
    35    12    34    1
    36    12    35    1
    37    17    36    1
    38    17    37    1
    39    17    38    1
    40    16    39    1
    41    16    40    1
    42    15    41    1
    43    15    42    1
@<TRIPOS>SUBSTRUCTURE
     1 EH9356      1 GROUP             0 A     EH9     0  
@<TRIPOS>SET
CCDC_LIGAND STATIC ATOMS
42 1 2 3 4 5 6 7 8 9 \
10 11 12 13 14 15 16 17 18 19 \
20 21 22 23 24 25 26 27 28 29 \
30 31 32 33 34 35 36 37 38 39 \
40 41 42 
