@<TRIPOS>MOLECULE
B:4TA802
    55    56     1     0     1
SMALL
NO_CHARGES
****
Generated from the CSD

@<TRIPOS>ATOM
     1 C5M     52.4319  17.3779  38.5770   C.3       1 4TA802   0.0000
     2 C5      51.7119  18.1529  37.4851   C.2       1 4TA802   0.0000
     3 C6      51.1338  17.5099  36.3842   C.2       1 4TA802   0.0000
     4 N1      50.5098  18.2209  35.4202   N.am      1 4TA802   0.0000
     5 C1B     49.8788  17.5879  34.2513   C.3       1 4TA802   0.0000
     6 C2B     50.8168  16.6029  33.5624   C.3       1 4TA802   0.0000
     7 C3B     49.8627  15.5469  33.0394   C.3       1 4TA802   0.0000
     8 O3B     49.5647  15.8169  31.6745   O.3       1 4TA802   0.0000
     9 C4B     48.5797  15.6489  33.8594   C.3       1 4TA802   0.0000
    10 C5B     48.5217  14.4499  34.7933   C.3       1 4TA802   0.0000
    11 O5'     47.2666  14.3959  35.4732   O.3       1 4TA802   0.0000
    12 PD      46.7446  13.0119  36.1332   P.3       1 4TA802   0.0000
    13 O2D     45.4855  13.3769  37.0521   O.3       1 4TA802   0.0000
    14 O1D     48.1946  12.2539  36.7831   O.3       1 4TA802   0.0000
    15 OCD     46.3485  12.2139  34.7833   O.3       1 4TA802   0.0000
    16 PC      45.8914  10.6839  34.7213   P.3       1 4TA802   0.0000
    17 O1C     44.2994  10.6179  35.5052   O.3       1 4TA802   0.0000
    18 O2C     45.8194  10.0659  33.2804   O.3       1 4TA802   0.0000
    19 OBC     47.0914   9.9919  35.5822   O.3       1 4TA802   0.0000
    20 PB      46.9534   8.5410  36.2582   P.3       1 4TA802   0.0000
    21 O2B     47.0744   8.6089  38.0270   O.3       1 4TA802   0.0000
    22 O1B     45.6983   7.7700  35.7002   O.3       1 4TA802   0.0000
    23 OAB     48.3174   7.7670  35.9382   O.3       1 4TA802   0.0000
    24 PA      48.6093   6.7670  34.7263   P.3       1 4TA802   0.0000
    25 O1A     47.2783   6.2170  34.0184   O.3       1 4TA802   0.0000
    26 O2A     49.7804   7.5630  33.6174   O.3       1 4TA802   0.0000
    27 OA      49.3593   5.5170  35.4292   O.3       1 4TA802   0.0000
    28 O4'     48.6368  16.9059  34.5663   O.3       1 4TA802   0.0000
    29 C2      50.4239  19.6279  35.5182   C.2       1 4TA802   0.0000
    30 O2      49.8299  20.2699  34.6203   O.2       1 4TA802   0.0000
    31 N3      50.9569  20.2809  36.5642   N.am      1 4TA802   0.0000
    32 C4      51.6039  19.6319  37.5401   C.2       1 4TA802   0.0000
    33 O4      52.0940  20.2759  38.4870   O.2       1 4TA802   0.0000
    34 H1      50.3010  14.5554  33.1429   H         1 4TA802   0.0000
    35 H2      50.4033  15.7998  31.1430   H         1 4TA802   0.0000
    36 H3      46.3506   9.1860  38.3864   H         1 4TA802   0.0000
    37 H4      45.7904   7.6545  34.7183   H         1 4TA802   0.0000
    38 H5      49.3221  14.5302  35.5273   H         1 4TA802   0.0000
    39 H6      48.6522  13.5382  34.2122   H         1 4TA802   0.0000
    40 H7      51.5264  16.1758  34.2695   H         1 4TA802   0.0000
    41 H8      51.3590  17.0807  32.7477   H         1 4TA802   0.0000
    42 H9      48.6065  12.8531  37.4594   H         1 4TA802   0.0000
    43 H10     50.6204   7.7600  34.1090   H         1 4TA802   0.0000
    44 H11     46.7160  10.1105  32.8559   H         1 4TA802   0.0000
    45 H12     43.6643  11.2026  35.0145   H         1 4TA802   0.0000
    46 H13     50.8670  21.2906  36.6158   H         1 4TA802   0.0000
    47 H14     44.7757  13.7885  36.4928   H         1 4TA802   0.0000
    48 H15     46.7567   6.9802  33.6558   H         1 4TA802   0.0000
    49 H16     48.7620   5.1144  36.1128   H         1 4TA802   0.0000
    50 H17     47.7170  15.6396  33.1949   H         1 4TA802   0.0000
    51 H18     51.1879  16.4252  36.3041   H         1 4TA802   0.0000
    52 H19     49.6480  18.3761  33.5362   H         1 4TA802   0.0000
    53 H20     53.2691  16.8329  38.1435   H         1 4TA802   0.0000
    54 H21     52.8014  18.0714  39.3309   H         1 4TA802   0.0000
    55 H22     51.7407  16.6742  39.0387   H         1 4TA802   0.0000
@<TRIPOS>BOND
     1     1     2    1
     2     2     3    2
     3     3     4    1
     4     4     5    1
     5     5     6    1
     6     6     7    1
     7     7     8    1
     8     7     9    1
     9     9    10    1
    10    10    11    1
    11    11    12    1
    12    12    13    1
    13    12    14    1
    14    12    15    1
    15    15    16    1
    16    16    17    1
    17    16    18    1
    18    16    19    1
    19    19    20    1
    20    20    21    1
    21    20    22    1
    22    20    23    1
    23    23    24    1
    24    24    25    1
    25    24    26    1
    26    24    27    1
    27     5    28    1
    28     9    28    1
    29     4    29   am
    30    29    30    2
    31    29    31   am
    32     2    32    1
    33    31    32   am
    34    32    33    2
    35     7    34    1
    36     8    35    1
    37    21    36    1
    38    22    37    1
    39    10    38    1
    40    10    39    1
    41     6    40    1
    42     6    41    1
    43    14    42    1
    44    26    43    1
    45    18    44    1
    46    17    45    1
    47    31    46    1
    48    13    47    1
    49    25    48    1
    50    27    49    1
    51     9    50    1
    52     3    51    1
    53     5    52    1
    54     1    53    1
    55     1    54    1
    56     1    55    1
@<TRIPOS>SUBSTRUCTURE
     1 4TA802      1 GROUP             0 B     4TA     0  
@<TRIPOS>SET
CCDC_LIGAND STATIC ATOMS
55 1 2 3 4 5 6 7 8 9 \
10 11 12 13 14 15 16 17 18 19 \
20 21 22 23 24 25 26 27 28 29 \
30 31 32 33 34 35 36 37 38 39 \
40 41 42 43 44 45 46 47 48 49 \
50 51 52 53 54 55 
