@<TRIPOS>MOLECULE
B:KEU610
    64    65     1     0     1
SMALL
NO_CHARGES
****
Generated from the CSD

@<TRIPOS>ATOM
     1 O4      52.9891  52.7267  21.5658   O.3       1 KEU610   0.0000
     2 C21     52.4371  53.2677  22.6608   C.2       1 KEU610   0.0000
     3 O5      51.6182  54.1956  22.6688   O.2       1 KEU610   0.0000
     4 C20     52.9491  52.5867  23.8938   C.3       1 KEU610   0.0000
     5 C19     52.3731  53.1417  25.2058   C.3       1 KEU610   0.0000
     6 C17     52.8501  52.4877  26.4898   C.3       1 KEU610   0.0000
     7 N       52.4220  51.0297  26.3498   N.am      1 KEU610   0.0000
     8 C       53.2899  49.9597  26.4968   C.2       1 KEU610   0.0000
     9 O       54.4700  50.1307  26.7368   O.2       1 KEU610   0.0000
    10 C14     52.7478  48.5908  26.3838   C.ar      1 KEU610   0.0000
    11 C13     53.7138  47.4488  26.6008   C.ar      1 KEU610   0.0000
    12 C12     53.2487  46.0558  26.5548   C.ar      1 KEU610   0.0000
    13 C11     51.7456  45.8148  26.2718   C.ar      1 KEU610   0.0000
    14 C16     50.8547  46.9668  26.0458   C.ar      1 KEU610   0.0000
    15 C15     51.3088  48.3178  26.0948   C.ar      1 KEU610   0.0000
    16 C10     50.9915  44.3519  26.2288   C.3       1 KEU610   0.0000
    17 C1      49.4775  44.4979  26.5388   C.3       1 KEU610   0.0000
    18 C2      49.5205  44.4519  28.2348   C.3       1 KEU610   0.0000
    19 C3      48.2444  43.9139  28.9818   C.3       1 KEU610   0.0000
    20 C4      48.2875  44.8069  30.1877   C.2       1 KEU610   0.0000
    21 C9      48.9144  44.1299  31.1607   C.2       1 KEU610   0.0000
    22 O1      49.4794  42.8409  31.2287   O.2       1 KEU610   0.0000
    23 N3      49.2025  44.6879  32.6607   N.am      1 KEU610   0.0000
    24 C8      48.7675  45.9438  32.9157   C.2       1 KEU610   0.0000
    25 N2      48.9476  46.4988  34.0987   N.pl3     1 KEU610   0.0000
    26 N1      48.1566  46.6318  31.9947   N.2       1 KEU610   0.0000
    27 C7      47.8865  46.1618  30.6487   C.2       1 KEU610   0.0000
    28 N8      47.2476  47.0178  29.8418   N.pl3     1 KEU610   0.0000
    29 C5      51.1645  43.3679  24.9808   C.3       1 KEU610   0.0000
    30 OA2     51.0224  42.2439  25.1478   O.3       1 KEU610   0.0000
    31 OA1     52.7665  43.4249  24.8508   O.3       1 KEU610   0.0000
    32 C6      50.8855  43.9409  23.5718   C.3       1 KEU610   0.0000
    33 F2      51.4446  45.1659  23.1758   F         1 KEU610   0.0000
    34 F1      49.5995  44.2029  23.7188   F         1 KEU610   0.0000
    35 F       51.1284  42.9859  22.6428   F         1 KEU610   0.0000
    36 C18     52.2501  53.1047  27.8318   C.2       1 KEU610   0.0000
    37 O3      52.7812  54.0866  28.3698   O.2       1 KEU610   0.0000
    38 O2      51.1230  52.5287  28.3768   O.3       1 KEU610   0.0000
    39 H1      48.8988  43.6727  26.1263   H         1 KEU610   0.0000
    40 H2      49.0782  45.4414  26.1697   H         1 KEU610   0.0000
    41 H3      49.6981  45.4680  28.5838   H         1 KEU610   0.0000
    42 H4      50.3578  43.8178  28.5223   H         1 KEU610   0.0000
    43 H5      46.9854  47.9372  30.1826   H         1 KEU610   0.0000
    44 H6      47.0253  46.7474  28.8890   H         1 KEU610   0.0000
    45 H7      53.9346  45.2250  26.7136   H         1 KEU610   0.0000
    46 H8      48.3397  42.8623  29.2482   H         1 KEU610   0.0000
    47 H9      47.3370  44.0595  28.3975   H         1 KEU610   0.0000
    48 H10     51.3987  43.8025  27.0764   H         1 KEU610   0.0000
    49 H11     53.1788  43.1001  25.6938   H         1 KEU610   0.0000
    50 H12     49.6786  44.1293  33.3618   H         1 KEU610   0.0000
    51 H13     51.3104  51.5788  28.5974   H         1 KEU610   0.0000
    52 H14     49.8037  46.7782  25.8320   H         1 KEU610   0.0000
    53 H15     54.7646  47.6604  26.7931   H         1 KEU610   0.0000
    54 H16     50.6150  49.1395  25.9236   H         1 KEU610   0.0000
    55 H17     50.1026  42.0724  25.4805   H         1 KEU610   0.0000
    56 H18     53.9372  52.5366  26.5310   H         1 KEU610   0.0000
    57 H19     51.4491  50.8332  26.1376   H         1 KEU610   0.0000
    58 H20     48.6150  47.4419  34.2728   H         1 KEU610   0.0000
    59 H21     49.4187  45.9829  34.8349   H         1 KEU610   0.0000
    60 H22     53.4898  53.4250  21.0680   H         1 KEU610   0.0000
    61 H23     54.0319  52.6996  23.9215   H         1 KEU610   0.0000
    62 H24     52.6959  51.5294  23.8300   H         1 KEU610   0.0000
    63 H25     51.2904  53.0335  25.1628   H         1 KEU610   0.0000
    64 H26     52.6305  54.1985  25.2583   H         1 KEU610   0.0000
@<TRIPOS>BOND
     1     1     2    1
     2     2     3    2
     3     2     4    1
     4     4     5    1
     5     5     6    1
     6     6     7    1
     7     7     8   am
     8     8     9    2
     9     8    10    1
    10    10    11   ar
    11    11    12   ar
    12    12    13   ar
    13    13    14   ar
    14    10    15   ar
    15    14    15   ar
    16    13    16    1
    17    16    17    1
    18    17    18    1
    19    18    19    1
    20    19    20    1
    21    20    21    1
    22    21    22    2
    23    21    23   am
    24    23    24    1
    25    24    25    1
    26    24    26    2
    27    20    27    2
    28    26    27    1
    29    27    28    1
    30    16    29    1
    31    29    30    1
    32    29    31    1
    33    29    32    1
    34    32    33    1
    35    32    34    1
    36    32    35    1
    37     6    36    1
    38    36    37    2
    39    36    38    1
    40    17    39    1
    41    17    40    1
    42    18    41    1
    43    18    42    1
    44    28    43    1
    45    28    44    1
    46    12    45    1
    47    19    46    1
    48    19    47    1
    49    16    48    1
    50    31    49    1
    51    23    50    1
    52    38    51    1
    53    14    52    1
    54    11    53    1
    55    15    54    1
    56    30    55    1
    57     6    56    1
    58     7    57    1
    59    25    58    1
    60    25    59    1
    61     1    60    1
    62     4    61    1
    63     4    62    1
    64     5    63    1
    65     5    64    1
@<TRIPOS>SUBSTRUCTURE
     1 KEU610      1 GROUP             0 B     KEU     0  
@<TRIPOS>SET
CCDC_LIGAND STATIC ATOMS
64 1 2 3 4 5 6 7 8 9 \
10 11 12 13 14 15 16 17 18 19 \
20 21 22 23 24 25 26 27 28 29 \
30 31 32 33 34 35 36 37 38 39 \
40 41 42 43 44 45 46 47 48 49 \
50 51 52 53 54 55 56 57 58 59 \
60 61 62 63 64 
