@<TRIPOS>MOLECULE
A:NOC434
    30    32     1     0     1
SMALL
NO_CHARGES
****
Generated from the CSD

@<TRIPOS>ATOM
     1 C6'     42.9685 -18.8804 104.3986   C.3       1 NOC434   0.0000
     2 O6'     42.7715 -20.0435 105.2736   O.3       1 NOC434   0.0000
     3 C5'     44.9384 -19.7135 103.1647   C.2       1 NOC434   0.0000
     4 C4'     44.3354 -18.8104 104.0147   C.2       1 NOC434   0.0000
     5 C3'     45.3014 -17.8474 104.5746   C.2       1 NOC434   0.0000
     6 O3'     45.0854 -16.8264 105.1836   O.2       1 NOC434   0.0000
     7 C2'     46.4774 -17.9874 103.6607   C.3       1 NOC434   0.0000
     8 O2'     47.6523 -17.6864 104.3976   O.3       1 NOC434   0.0000
     9 C1'     46.4264 -19.4825 103.1477   C.3       1 NOC434   0.0000
    10 N9      47.1483 -19.8965 101.9547   N.pl3     1 NOC434   0.0000
    11 C8      47.0313 -19.3645 100.6718   C.2       1 NOC434   0.0000
    12 N7      47.7953 -19.9545  99.8198   N.2       1 NOC434   0.0000
    13 C5      48.4793 -20.9425 100.5368   C.ar      1 NOC434   0.0000
    14 C6      49.4713 -21.9395 100.2118   C.ar      1 NOC434   0.0000
    15 N6      49.9852 -22.0925  98.9499   N.pl3     1 NOC434   0.0000
    16 N1      49.8872 -22.7515 101.2788   N.ar      1 NOC434   0.0000
    17 C2      49.4043 -22.6105 102.4977   C.ar      1 NOC434   0.0000
    18 N3      48.4803 -21.7175 102.9237   N.ar      1 NOC434   0.0000
    19 C4      48.0413 -20.8925 101.9007   C.ar      1 NOC434   0.0000
    20 H1      44.4169 -20.4788 102.5918   H         1 NOC434   0.0000
    21 H2      47.7360 -18.3177 105.1595   H         1 NOC434   0.0000
    22 H3      46.3793 -17.3019 102.8202   H         1 NOC434   0.0000
    23 H4      42.6932 -17.9722 104.9326   H         1 NOC434   0.0000
    24 H5      42.3457 -18.9827 103.5112   H         1 NOC434   0.0000
    25 H6      43.3403 -19.9496 106.0821   H         1 NOC434   0.0000
    26 H7      49.7949 -23.2933 103.2508   H         1 NOC434   0.0000
    27 H8      50.6818 -22.8083  98.7689   H         1 NOC434   0.0000
    28 H9      49.6692 -21.4900  98.1967   H         1 NOC434   0.0000
    29 H10     46.8278 -20.0867 103.9599   H         1 NOC434   0.0000
    30 H11     46.3666 -18.5401 100.4179   H         1 NOC434   0.0000
@<TRIPOS>BOND
     1     1     2    1
     2     1     4    1
     3     3     4    2
     4     4     5    1
     5     5     6    2
     6     5     7    1
     7     7     8    1
     8     3     9    1
     9     7     9    1
    10     9    10    1
    11    10    11    1
    12    11    12    2
    13    12    13    1
    14    13    14   ar
    15    14    15    1
    16    14    16   ar
    17    16    17   ar
    18    17    18   ar
    19    10    19    1
    20    13    19   ar
    21    18    19   ar
    22     3    20    1
    23     8    21    1
    24     7    22    1
    25     1    23    1
    26     1    24    1
    27     2    25    1
    28    17    26    1
    29    15    27    1
    30    15    28    1
    31     9    29    1
    32    11    30    1
@<TRIPOS>SUBSTRUCTURE
     1 NOC434      1 GROUP             0 A     NOC     0  
@<TRIPOS>SET
CCDC_LIGAND STATIC ATOMS
30 1 2 3 4 5 6 7 8 9 \
10 11 12 13 14 15 16 17 18 19 \
20 21 22 23 24 25 26 27 28 29 \
30 
