@<TRIPOS>MOLECULE
A:0IV246
    59    60     1     0     1
SMALL
NO_CHARGES
****
Generated from the CSD

@<TRIPOS>ATOM
     1 S       24.0730   5.7251  29.9476   S.o       1 0IV246   0.0000
     2 O1S     23.1510   6.2201  28.9266   O.3       1 0IV246   0.0000
     3 O2S     23.3610   4.9771  30.9817   O.2       1 0IV246   0.0000
     4 N       25.1570   4.6821  29.2146   N.pl3     1 0IV246   0.0000
     5 CA      25.5970   3.3910  29.6256   C.3       1 0IV246   0.0000
     6 CB      26.1840   3.4820  31.0057   C.3       1 0IV246   0.0000
     7 CG      26.4320   2.1540  31.6727   C.3       1 0IV246   0.0000
     8 CD      25.2710   1.1810  31.6407   C.3       1 0IV246   0.0000
     9 C7      24.5370   2.2410  29.4956   C.2       1 0IV246   0.0000
    10 O       23.7760   2.3820  28.5316   O.2       1 0IV246   0.0000
    11 N1      24.6040   1.1740  30.3106   N.am      1 0IV246   0.0000
    12 CA1     23.7020   0.0530  29.9476   C.3       1 0IV246   0.0000
    13 C8      22.4180   0.8670  30.2866   C.2       1 0IV246   0.0000
    14 O1      22.1470   1.3320  31.4337   O.2       1 0IV246   0.0000
    15 C21     20.1910   4.5321  28.6196   C.3       1 0IV246   0.0000
    16 C31     20.9790   4.3781  27.3206   C.3       1 0IV246   0.0000
    17 N2      21.2880   0.3550  29.5556   N.am      1 0IV246   0.0000
    18 CA2     19.9550   0.5250  29.9586   C.3       1 0IV246   0.0000
    19 C9      19.4520  -0.5070  31.0737   C.3       1 0IV246   0.0000
    20 O2      18.0560  -0.6290  31.1727   O.3       1 0IV246   0.0000
    21 CB1     19.1950   0.8040  28.7656   C.3       1 0IV246   0.0000
    22 CZ      19.9900   3.7541  25.0545   C.cat     1 0IV246   0.0000
    23 NE      20.2770   3.4130  26.3756   N.pl3     1 0IV246   0.0000
    24 C11     20.0500   3.1780  29.1566   C.3       1 0IV246   0.0000
    25 CG1     19.3380   2.1580  28.1916   C.3       1 0IV246   0.0000
    26 CD1     20.1240   2.0850  26.8656   C.3       1 0IV246   0.0000
    27 NH1     19.5410   2.8750  24.2125   N.pl3     1 0IV246   0.0000
    28 NH2     20.1300   4.9701  24.7205   N.pl3     1 0IV246   0.0000
    29 H1      18.1425   0.6548  29.0020   H         1 0IV246   0.0000
    30 H2      19.5010   0.0883  28.0040   H         1 0IV246   0.0000
    31 H3      26.4185   3.1241  28.9625   H         1 0IV246   0.0000
    32 H4      17.6888  -0.9422  30.3049   H         1 0IV246   0.0000
    33 H5      18.3416   2.5391  27.9730   H         1 0IV246   0.0000
    34 H6      19.8330  -0.1763  32.0387   H         1 0IV246   0.0000
    35 H7      19.8625  -1.4878  30.8381   H         1 0IV246   0.0000
    36 H8      19.4696   3.2366  30.0762   H         1 0IV246   0.0000
    37 H9      21.0453   2.7962  29.3793   H         1 0IV246   0.0000
    38 H10     25.4972   4.0521  31.6296   H         1 0IV246   0.0000
    39 H11     27.1342   4.0095  30.9361   H         1 0IV246   0.0000
    40 H12     19.3389   3.1460  23.2555   H         1 0IV246   0.0000
    41 H13     19.3919   1.9164  24.5108   H         1 0IV246   0.0000
    42 H14     21.1024   1.6394  27.0391   H         1 0IV246   0.0000
    43 H15     19.5747   1.4844  26.1421   H         1 0IV246   0.0000
    44 H16     26.6820   2.3438  32.7155   H         1 0IV246   0.0000
    45 H17     27.2789   1.6823  31.1764   H         1 0IV246   0.0000
    46 H18     19.9317   5.2609  23.7685   H         1 0IV246   0.0000
    47 H19     20.4403   5.6520  25.4053   H         1 0IV246   0.0000
    48 H20     24.5453   1.4705  32.3993   H         1 0IV246   0.0000
    49 H21     25.6418   0.1800  31.8562   H         1 0IV246   0.0000
    50 H22     21.4663  -0.1589  28.6987   H         1 0IV246   0.0000
    51 H23     21.9727   3.9954  27.5487   H         1 0IV246   0.0000
    52 H24     21.0664   5.3505  26.8382   H         1 0IV246   0.0000
    53 H25     25.5616   5.0199  28.3472   H         1 0IV246   0.0000
    54 H26     19.2122   4.9663  28.4214   H         1 0IV246   0.0000
    55 H27     20.7335   5.1646  29.3207   H         1 0IV246   0.0000
    56 H28     22.4814   6.8200  29.3482   H         1 0IV246   0.0000
    57 H29     23.8335  -0.8282  30.5738   H         1 0IV246   0.0000
    58 H30     23.7684  -0.2335  28.8991   H         1 0IV246   0.0000
    59 H31     19.9670   1.4798  30.4822   H         1 0IV246   0.0000
@<TRIPOS>BOND
     1     1     2    1
     2     1     3    2
     3     1     4    1
     4     4     5    1
     5     5     6    1
     6     6     7    1
     7     7     8    1
     8     5     9    1
     9     9    10    2
    10     8    11    1
    11     9    11   am
    12    11    12    1
    13    12    13    1
    14    13    14    2
    15    15    16    1
    16    13    17   am
    17    17    18    1
    18    18    19    1
    19    19    20    1
    20    18    21    1
    21    16    23    1
    22    22    23    2
    23    15    24    1
    24    21    25    1
    25    24    25    1
    26    23    26    1
    27    25    26    1
    28    22    27    1
    29    22    28    1
    30    21    29    1
    31    21    30    1
    32     5    31    1
    33    20    32    1
    34    25    33    1
    35    19    34    1
    36    19    35    1
    37    24    36    1
    38    24    37    1
    39     6    38    1
    40     6    39    1
    41    27    40    1
    42    27    41    1
    43    26    42    1
    44    26    43    1
    45     7    44    1
    46     7    45    1
    47    28    46    1
    48    28    47    1
    49     8    48    1
    50     8    49    1
    51    17    50    1
    52    16    51    1
    53    16    52    1
    54     4    53    1
    55    15    54    1
    56    15    55    1
    57     2    56    1
    58    12    57    1
    59    12    58    1
    60    18    59    1
@<TRIPOS>SUBSTRUCTURE
     1 0IV246      1 GROUP             0 A     0IV     0  
@<TRIPOS>SET
CCDC_LIGAND STATIC ATOMS
59 1 2 3 4 5 6 7 8 9 \
10 11 12 13 14 15 16 17 18 19 \
20 21 22 23 24 25 26 27 28 29 \
30 31 32 33 34 35 36 37 38 39 \
40 41 42 43 44 45 46 47 48 49 \
50 51 52 53 54 55 56 57 58 59 
